data/HR1/A_KPC_35_3/A_KPC_35_3_2050.m
% Distribution_Network_KPC_10
function mpc = A_KPC_35()


%% MATPOWER Case Format : Version 2
mpc.version = '2';

%%-----  Power Flow Data  -----%%
%% system MVA base
mpc.baseMVA = 100;

%% bus data													
%	bus_i	type	Pd	Qd	Gs	Bs	area	Vm	Va	baseKV	zone	Vmax	Vmin
mpc.bus = [													
	31	3	0	0	0	0	1	1	0	110	1	1.1	0.9;
	32	1	0	0	0	0	1	1	0	35	1	1.1	0.9;
	33	1	0	0	0	0	1	1	0	35	1	1.1	0.9;
	34	1	4	0.15	0	0	1	1	0	35	1	1.1	0.9;
	35	1	0	0	0	0	1	1	0	35	1	1.1	0.9;
	36	1	1	0.2	0	0	1	1	0	10	1	1.1	0.9;
	37	1	0	0	0	0	1	1	0	35	1	1.1	0.9;
	38	1	5.6	0.4	0	0	1	1	0	10	1	1.1	0.9;
	39	1	0	0	0	0	1	1	0	35	1	1.1	0.9;
	40	1	3.3	-0.3	0	0	1	1	0	10	1	1.1	0.9;
];													

%% branch data														
%	fbus	tbus	r	x	b	rateA (summer)	rateB (spring)	rateC (winter)	tap ratio	shift angle	status	angmin	angmax	step_size	actTap	minTap	maxTap	normalTap	length (km)
mpc.branch = [														
	32	34	0.040555102	0.034089796	0.003046428	27.2475	27.2475	27.2475	0	0	1	-360	360;
	32	33	9.22449E-08	8.97959E-08	8.84695E-09	30.8805	30.8805	30.8805	0	0	0	-360	360;
	33	35	0.01802449	0.01515102	0.001353968	27.2475	27.2475	27.2475	0	0	1	-360	360;
	33	37	0.255478367	0.353428571	0.000500078	20.88975	20.88975	20.88975	0	0	1	-360	360;
	34	35	0.025121633	0.021116735	0.001887093	27.2475	27.2475	27.2475	0	0	0	-360	360;
	37	39	0.295338776	0.408571429	0.000578102	20.88975	20.88975	20.88975	0	0	1	-360	360;
	31	32	0.02	0.55	0	20	20	20	1.038095238	0	1	-360	360;
	31	33	0.02	0.55	0	20	20	20	1.038095238	0	1	-360	360;
	35	36	0.17825	1.5	0	4	4	4	0.976190476	0	0	-360	360;
	35	36	0.17825	1.5	0	4	4	4	0.976190476	0	1	-360	360;
	37	38	0.07875	0.875	0	8	8	8	0.952380952	0	1	-360	360;
	37	38	0.07875	0.875	0	8	8	8	0.952380952	0	1	-360	360;
	39	40	0.07875	0.875	0	8	8	8	0.976190476	0	1	-360	360;
	39	40	0.07875	0.875	0	8	8	8	0.976190476	0	1	-360	360;
];

%% generator data
%	bus	Pg	Qg	Qmax	Qmin	Vg	mBase	status	Pmax	Pmin	Pc1	Pc2	Qc1min	Qc1max	Qc2min	Qc2max	ramp_agc	ramp_10	ramp_30	ramp_q	apf	
mpc.gen = [																						
	31	0	0	40	-40     1.05	100	1	40	-40	0	0	0	0	0	0	0	0	0	0	0;
	36	1	0	0.7	-0.7	1       100	1	1.6	0	0	0	0	0	0	0	0	0	0	0	0;
	34	0.00	0.00	0.00	0.00	1.00	100	1	7.63	0.00	0	0	0	0	0	0	0	0	0	0	0;
	36	0.00	0.00	0.00	0.00	1.00	100	1	1.91	0.00	0	0	0	0	0	0	0	0	0	0	0;
	38	0.00	0.00	0.00	0.00	1.00	100	1	10.69	0.00	0	0	0	0	0	0	0	0	0	0	0;
	40	0.00	0.00	0.00	0.00	1.00	100	1	6.30	0.00	0	0	0	0	0	0	0	0	0	0	0;
];

% Generation Technology Type:
%  CWS (Connection with Spain),
%  FOG (Fossil Gas),
%  FHC (Fossil Hard Coal),
%  HWR (Hydro Water Reservoir),
%  HPS (Hydro Pumped Storage),
%  HRP (Hydro Run-of-river and poundage),
%  SH1 (Small Hydro - P ≤ 10 MW),
%  SH3 (Small Hydro - 10 MW < P ≤ 30 MW),
%  PVP (Photovoltaic power plant),
%  WON (Wind onshore),
%  WOF (Wind offshore),
%  MAR (Marine),
%  OTH (Other thermal, such as geothermal, biomass, biogas, Municipal solid waste and CHP renewable and non-renewable)
%  REF (Reference node)
%	genType
mpc.gen_tags = {
	'REF';	'FOG';	'PVP';	'PVP';	'PVP';	'PVP';
};

%% energy storage
%	Bus	S, [MW]	E, [MWh]	Einit, [MWh]	EffCh	EffDch	MaxPF	MinPF
mpc.energy_storage = [
	34	20.36	40.71	20.36	0.95	0.95	0.80	-0.80;
	36	5.09	10.18	5.09	0.95	0.95	0.80	-0.80;
	38	28.50	57.00	28.50	0.95	0.95	0.80	-0.80;
	40	16.79	33.59	16.79	0.95	0.95	0.80	-0.80;
];
